Mini_BESS_added/IEEE13_with_PV_BESS (1).dss
Clear

!================ CIRCUIT DEFINITION ================
New Circuit.IEEE13Nodeckt 
~ basekv=115 phases=3 bus1=SourceBus Angle=30 

!================ TRANSFORMERS ================
New Transformer.Sub Phases=3 Windings=2 XHL=0.08
~ wdg=1 bus=SourceBus conn=delta kv=115 kva=5000 %r=1 
~ wdg=2 bus=650 conn=wye kv=4.16 kva=5000 %r=1  

! Substation Regulators (Voltage targets lowered to reduce feeder voltage rise)
New Transformer.Reg1 phases=1 bank=reg1 XHL=0.05 kVAs=[1666 1666]
~ Buses=[650.1 RG60.1] kVs=[2.4 2.4] conns=[wye wye]
New Regcontrol.Reg1 transformer=Reg1 winding=2 vreg=120 band=2 ptratio=20 ctprim=700 R=3 X=9 

New Transformer.Reg2 phases=1 bank=reg1 XHL=0.05 kVAs=[1666 1666]
~ Buses=[650.2 RG60.2] kVs=[2.4 2.4] conns=[wye wye]
New Regcontrol.Reg2 transformer=Reg2 winding=2 vreg=118 band=2 ptratio=20 ctprim=700 R=3 X=9  ! Lowered to target Phase B overvoltage

New Transformer.Reg3 phases=1 bank=reg1 XHL=0.05 kVAs=[1666 1666]
~ Buses=[650.3 RG60.3] kVs=[2.4 2.4] conns=[wye wye]
New Regcontrol.Reg3 transformer=Reg3 winding=2 vreg=120 band=2 ptratio=20 ctprim=700 R=3 X=9 

New Transformer.XFM1 Phases=3 Windings=2 XHL=2
~ wdg=1 bus=633 conn=Wye kv=4.16 kva=500 %r=.55
~ wdg=2 bus=634 conn=Wye kv=0.48 kva=500 %r=.55

!================ LINE CODES ================
New Linecode.mtx601 nphases=3 units=mi
~ Rmatrix=(0.3465 | 0.1560 0.3375 | 0.1580 0.1535 0.3414)
~ Xmatrix=(1.0179 | 0.5017 1.0478 | 0.4236 0.3849 1.0348)

New Linecode.mtx602 nphases=3 units=mi
~ Rmatrix=(0.7526 | 0.1580 0.7475 | 0.1560 0.1535 0.7436)
~ Xmatrix=(1.1814 | 0.4236 1.1983 | 0.5017 0.3849 1.2112)

New Linecode.mtx603 nphases=2 units=mi
~ Rmatrix=(1.3238 | 0.2066 1.3294)
~ Xmatrix=(1.3569 | 0.4591 1.3471)

New Linecode.mtx604 nphases=2 units=mi
~ Rmatrix=(1.3238 | 0.2066 1.3294)
~ Xmatrix=(1.3569 | 0.4591 1.3471)

New Linecode.mtx605 nphases=1 units=mi
~ Rmatrix=(1.3292)
~ Xmatrix=(1.3475)

New Linecode.mtx606 nphases=3 units=mi
~ Rmatrix=(0.791721 | 0.318476 0.781649 | 0.28345 0.318476 0.791721)
~ Xmatrix=(0.438352 | 0.0276838 0.396697 | -0.0184204 0.0276838 0.438352)
~ Cmatrix=(383.948 | 0 383.948 | 0 0 383.948)

New Linecode.mtx607 nphases=1 units=mi
~ Rmatrix=(1.3425)
~ Xmatrix=(0.5124)
~ Cmatrix=(236)

!================ LINES ================
New Line.650632 Phases=3 Bus1=RG60.1.2.3 Bus2=632.1.2.3 LineCode=mtx601 Length=2000 units=ft
New Line.632671 Phases=3 Bus1=632.1.2.3 Bus2=671.1.2.3 LineCode=mtx601 Length=2000 units=ft
New Line.671680 Phases=3 Bus1=671.1.2.3 Bus2=680.1.2.3 LineCode=mtx601 Length=1000 units=ft

New Line.632633 Phases=3 Bus1=632.1.2.3 Bus2=633.1.2.3 LineCode=mtx602 Length=500 units=ft
New Line.632645 Phases=2 Bus1=632.3.2 Bus2=645.3.2 LineCode=mtx603 Length=500 units=ft
New Line.645646 Phases=2 Bus1=645.3.2 Bus2=646.3.2 LineCode=mtx603 Length=300 units=ft

New Line.671684 Phases=2 Bus1=671.1.3 Bus2=684.1.3 LineCode=mtx604 Length=300 units=ft
New Line.684611 Phases=1 Bus1=684.3 Bus2=611.3 LineCode=mtx605 Length=300 units=ft
New Line.684652 Phases=1 Bus1=684.1 Bus2=652.1 LineCode=mtx607 Length=800 units=ft

New Line.692675 Phases=3 Bus1=692.1.2.3 Bus2=675.1.2.3 LineCode=mtx606 Length=500 units=ft
New Line.671692 Phases=3 Bus1=671.1.2.3 Bus2=692.1.2.3 Switch=y r1=1e-4 x1=0

!================ LOADS ================
New Load.671 Bus1=671.1.2.3 Phases=3 Conn=Delta kV=4.16 kW=1155 kvar=660
New Load.634a Bus1=634.1 Phases=1 Conn=Wye kV=0.277 kW=160 kvar=110
New Load.634b Bus1=634.2 Phases=1 Conn=Wye kV=0.277 kW=120 kvar=90
New Load.634c Bus1=634.3 Phases=1 Conn=Wye kV=0.277 kW=120 kvar=90
New Load.645 Bus1=645.2 Phases=1 Conn=Wye kV=2.4 kW=170 kvar=125
New Load.646 Bus1=646.2.3 Phases=1 Conn=Delta kV=4.16 kW=230 kvar=132
New Load.692 Bus1=692.3.1 Phases=1 Conn=Delta kV=4.16 kW=170 kvar=151

New Load.675a Bus1=675.1 Phases=1 Conn=Wye kV=2.4 kW=485 kvar=190
New Load.675b Bus1=675.2 Phases=1 Conn=Wye kV=2.4 kW=68 kvar=60
New Load.675c Bus1=675.3 Phases=1 Conn=Wye kV=2.4 kW=290 kvar=212

New Load.611 Bus1=611.3 Phases=1 Conn=Wye kV=2.4 kW=170 kvar=80
New Load.652 Bus1=652.1 Phases=1 Conn=Wye kV=2.4 kW=128 kvar=86

!================ CAPACITORS ================
New Capacitor.Cap1 Bus1=675 phases=3 kVAR=200 kV=4.16 
New CapControl.Cap1_Ctrl Capacitor=Cap1 Element=Capacitor.Cap1 Terminal=1 PTPhase=2 Type=Voltage On=0.95 Off=1.03
New Capacitor.Cap2 Bus1=611.3 phases=1 kVAR=30 kV=2.4 

!================ LOADSHAPES ================
New Loadshape.Daily24 npts=24 interval=1
~ mult=(0.60 0.55 0.50 0.45 0.40 0.45 0.60 0.75 0.90 1.00 1.10 1.15 1.20 1.25 1.20 1.15 1.10 1.20 1.35 1.50 1.40 1.20 0.95 0.75)

BatchEdit Load..* daily=Daily24

New Loadshape.SolarShape npts=24 interval=1
~ mult=(0 0 0 0 0 0.05 0.20 0.40 0.6 0.8 0.9 0.95 0.9 0.85 0.75 0.55 0.35 0.15 0.05 0 0 0 0 0)

! Battery Dispatch Profile (-: Charging, +: Discharging)
New LoadShape.BESSShape npts=24 interval=1 
~ mult=(0 0 0 0 0 0 -0.10 -0.20 -0.30 -0.40 -0.50 -0.50 -0.50 -0.40 -0.20 0 0.30 0.60 0.80 1.00 0.90 0.60 0 0)

!================ MONITORS BEFORE PV ================
New Monitor.Bus675_Voltage_Before Element=Line.692675 Terminal=2 Mode=0

! WEAK BUS MONITORS (BEFORE PV)
New Monitor.V_Bus611_Before Element=Line.684611 Terminal=2 Mode=0
New Monitor.V_Bus684_Before Element=Line.671684 Terminal=2 Mode=0
New Monitor.V_Bus652_Before Element=Line.684652 Terminal=2 Mode=0
New Monitor.V_Bus671_Before Element=Line.632671 Terminal=2 Mode=0
New Monitor.V_Bus634_Before Element=Transformer.XFM1 Terminal=2 Mode=0
New Monitor.V_Bus632_Before Element=Line.650632 Terminal=2 Mode=0

!================ BEFORE PV SOLVE =================
Set Voltagebases=[115, 4.16, .48]
CalcVoltageBases
Set mode=daily stepsize=1h number=24
Set Controlmode=TIME

Solve

Show Voltages
Show Losses
Show Monitor Bus675_Voltage_Before

! EXPORT MONITORS (BEFORE PV)
Export Losses filename=Losses_Before_PV.csv
Export Monitor Bus675_Voltage_Before filename=V_Bus675_Before_PV.csv
Export Monitor V_Bus611_Before filename=V_Bus611_Before_PV.csv
Export Monitor V_Bus684_Before filename=V_Bus684_Before_PV.csv
Export Monitor V_Bus652_Before filename=V_Bus652_Before_PV.csv
Export Monitor V_Bus671_Before filename=V_Bus671_Before_PV.csv
Export Monitor V_Bus634_Before filename=V_Bus634_Before_PV.csv
Export Monitor V_Bus632_Before filename=V_Bus632_Before_PV.csv

!================ PV SYSTEM (AT BUS 675) ================
New PVSystem.PV675 
~ Bus1=675.1.2.3 
~ Phases=3 
~ Conn=Wye
~ kV=2.4
~ kVA=350
~ Pmpp=350
~ %Cutin=0.1
~ %Cutout=0.1
~ daily=SolarShape

!================ STORAGE (BESS) ================
New Storage.BESS675
~ Bus1=675.1.2.3
~ Phases=3
~ Conn=Wye
~ kV=2.4
~ kWRated=350
~ kWhRated=1400
~ kWhStored=1120
~ %Reserve=20
~ %EffCharge=95
~ %EffDischarge=95
~ %IdlingkW=0
~ PF=1.0
~ State=IDLING
~ DispMode=Follow
~ Daily=BESSShape

!================ SMART INVERTER CONTROLS ================
! Dynamic Volt-VAR Curve to absorb Q during overvoltage conditions (>1.02 pu)
New XYCurve.VV_Curve npts=4 Xarray=[0.95 1.02 1.04 1.08] Yarray=[0.4 0.0 0.0 -0.4]

New InvControl.DER_VoltVar
~ mode=VOLTVAR 
~ vvc_curve1=VV_Curve 
~ derlist=[PVSystem.PV675 Storage.BESS675]
~ EventLog=Yes

!================ MONITORS AFTER PV & BESS ================
! Bus 675 24-hr Voltage Monitor (After PV & BESS)
New Monitor.Bus675_Voltage_After Element=Line.692675 Terminal=2 Mode=0

! Additional Monitors
New Monitor.Line692675 Element=Line.692675 Terminal=1 Mode=1
New Monitor.Source Element=Transformer.Sub Terminal=1 Mode=1
New Monitor.PV Element=PVSystem.PV675 Terminal=1 Mode=1
New Monitor.Reg1_Tap Element=Transformer.Reg1 Terminal=2 Mode=2
New Monitor.Reg2_Tap Element=Transformer.Reg2 Terminal=2 Mode=2
New Monitor.Reg3_Tap Element=Transformer.Reg3 Terminal=2 Mode=2
New Monitor.Line671692 Element=Line.671692 Terminal=1 Mode=1
New Monitor.Line632671 Element=Line.632671 Terminal=1 Mode=1
New Monitor.Line692675_Current Element=Line.692675 Terminal=1 Mode=0
New Monitor.Line671692_Current Element=Line.671692 Terminal=1 Mode=0
New Monitor.Line632671_Current Element=Line.632671 Terminal=1 Mode=0
New Monitor.PV675_Power Element=PVSystem.PV675 Terminal=1 Mode=1
New Monitor.BESSEnergy Element=Storage.BESS675 Terminal=1 Mode=3

! WEAK BUS MONITORS (AFTER PV & BESS)
New Monitor.V_Bus611_After Element=Line.684611 Terminal=2 Mode=0
New Monitor.V_Bus684_After Element=Line.671684 Terminal=2 Mode=0
New Monitor.V_Bus652_After Element=Line.684652 Terminal=2 Mode=0
New Monitor.V_Bus671_After Element=Line.632671 Terminal=2 Mode=0
New Monitor.V_Bus634_After Element=Transformer.XFM1 Terminal=2 Mode=0
New Monitor.V_Bus632_After Element=Line.650632 Terminal=2 Mode=0

!================ AFTER PV & BESS SOLVE =================
Set mode=daily stepsize=1h number=24
Set Controlmode=TIME
Set MaxControlIter=100

Solve

Show Losses
Show Voltages pu
Show Powers
Show Monitor Bus675_Voltage_After
Show Voltages after
Show Voltage LN nodes

! EXPORT MONITORS (AFTER PV & BESS)
Export Monitor Bus675_Voltage_After filename=V_Bus675_After_PV_BESS.csv
Export PVSystem
Export Powers
Export Monitor Reg1_Tap
Export Monitor Reg2_Tap
Export Monitor Reg3_Tap
Export Monitor Source
Export Monitor PV
Export Monitor Line692675
Export Monitor Line671692
Export Monitor Line632671
Export Monitor Line692675_Current
Export Monitor Line671692_Current
Export Monitor Line632671_Current
Export Monitor BESSEnergy
Export Taps
Export Monitor PV675_Power
Export Losses filename=Losses_After_PV.csv

! EXPORT WEAK BUS MONITORS (AFTER PV & BESS)
Export Monitor V_Bus611_After filename=V_Bus611_After_PV_BESS.csv
Export Monitor V_Bus684_After filename=V_Bus684_After_PV_BESS.csv
Export Monitor V_Bus652_After filename=V_Bus652_After_PV_BESS.csv
Export Monitor V_Bus671_After filename=V_Bus671_After_PV_BESS.csv
Export Monitor V_Bus634_After filename=V_Bus634_After_PV_BESS.csv
Export Monitor V_Bus632_After filename=V_Bus632_After_PV_BESS.csv