Mini_BESS_added/IEEE13Nodeckt_Power_seq_kVA.txt

SYMMETRICAL COMPONENT POWERS BY CIRCUIT ELEMENT (first 3 phases)                                     Excess Power

Element                         Term    P1(kW)   Q1(kvar)       P2         Q2      P0      Q0       P_Norm      Q_Norm     P_Emerg    Q_Emerg

"Vsource.SOURCE"                 1    -2614.0    -2649.0        0.0        0.1     0.0     0.0
"Vsource.SOURCE"                 2        0.0        0.0        0.0        0.0     0.0     0.0
"Transformer.SUB"                1     2614.0     2649.0       -0.0       -0.1    -0.0    -0.0        0.0        0.0        0.0        0.0
"Transformer.SUB"                2    -2558.4    -2646.8        0.5        0.1     0.4     0.0
"Transformer.REG1"               1        0.0        0.0        0.0        0.0     0.0     0.0        0.0        0.0        0.0        0.0
"Transformer.REG1"               2        0.0        0.0        0.0        0.0     0.0     0.0
"Transformer.REG2"               1        0.0        0.0        0.0        0.0     0.0     0.0        0.0        0.0        0.0        0.0
"Transformer.REG2"               2        0.0        0.0        0.0        0.0     0.0     0.0
"Transformer.REG3"               1        0.0        0.0        0.0        0.0     0.0     0.0        0.0        0.0        0.0        0.0
"Transformer.REG3"               2        0.0        0.0        0.0        0.0     0.0     0.0
"Transformer.XFM1"               1      302.8      223.0        0.1        0.0     0.1    -0.0        0.0        0.0        0.0        0.0
"Transformer.XFM1"               2     -299.9     -217.6       -0.1        0.0    -0.0     0.1
"Line.650632"                    1     2541.9     2640.8        2.3        2.2     2.0     2.3      589.1      612.0        0.0        0.0
"Line.650632"                    2    -2495.8    -2486.5       -0.4       -1.1    -0.2     0.5
"Line.632671"                    1     1889.6     2068.3        1.2        1.7     0.3    -0.8      251.0      274.7        0.0        0.0
"Line.632671"                    2    -1861.9    -1971.8        2.0        1.3     2.9     7.3
"Line.671680"                    1       -0.0       -0.0       -0.0       -0.0     0.0    -0.0        0.0        0.0        0.0        0.0
"Line.671680"                    2        0.0        0.0        0.0        0.0     0.0     0.0
"Line.632633"                    1      303.3      223.6        0.1        0.0     0.1    -0.0        0.0        0.0        0.0        0.0
"Line.632633"                    2     -302.8     -223.0       -0.1       -0.0    -0.1     0.0
"Line.632645"                    1        0.0        0.0        0.0        0.0     0.0     0.0        0.0        0.0        0.0        0.0
"Line.632645"                    2        0.0        0.0        0.0        0.0     0.0     0.0
"Line.645646"                    1        0.0        0.0        0.0        0.0     0.0     0.0        0.0        0.0        0.0        0.0
"Line.645646"                    2        0.0        0.0        0.0        0.0     0.0     0.0
"Line.671684"                    1        0.0        0.0        0.0        0.0     0.0     0.0        0.0        0.0        0.0        0.0
"Line.671684"                    2        0.0        0.0        0.0        0.0     0.0     0.0
"Line.684611"                    1        0.0        0.0        0.0        0.0     0.0     0.0        0.0        0.0        0.0        0.0
"Line.684611"                    2        0.0        0.0        0.0        0.0     0.0     0.0
"Line.684652"                    1        0.0        0.0        0.0        0.0     0.0     0.0        0.0        0.0        0.0        0.0
"Line.684652"                    2        0.0        0.0        0.0        0.0     0.0     0.0
"Line.692675"                    1      641.4     1264.3       -1.0       -0.2    -1.8    -6.1        0.0        0.0        0.0        0.0
"Line.692675"                    2     -636.1    -1259.8        1.3        0.3     2.6     6.4
"Line.671692"                    1      769.3     1378.2       -1.4       -0.8    -1.8    -6.1        0.0        0.0        0.0        0.0
"Line.671692"                    2     -769.3    -1378.2        1.4        0.8     1.8     6.1
"Capacitor.CAP1"                 1        0.0        0.0        0.0        0.0     0.0    -0.0        0.0        0.0        0.0        0.0
"Capacitor.CAP1"                 2        0.0        0.0        0.0        0.0     0.0     0.0
"Capacitor.CAP2"                 1        0.0        0.0        0.0        0.0     0.0     0.0        0.0        0.0        0.0        0.0
"Capacitor.CAP2"                 2        0.0        0.0        0.0        0.0     0.0     0.0
"Load.671"                       1      866.2      495.0       -0.0       -0.0     0.0    -0.0
"Load.634A"                      1        0.0        0.0        0.0        0.0     0.0     0.0
"Load.634B"                      1        0.0        0.0        0.0        0.0     0.0     0.0
"Load.634C"                      1        0.0        0.0        0.0        0.0     0.0     0.0
"Load.645"                       1        0.0        0.0        0.0        0.0     0.0     0.0
"Load.646"                       1        0.0        0.0        0.0        0.0     0.0     0.0
"Load.692"                       1        0.0        0.0        0.0        0.0     0.0     0.0
"Load.675A"                      1        0.0        0.0        0.0        0.0     0.0     0.0
"Load.675B"                      1        0.0        0.0        0.0        0.0     0.0     0.0
"Load.675C"                      1        0.0        0.0        0.0        0.0     0.0     0.0
"Load.611"                       1        0.0        0.0        0.0        0.0     0.0     0.0
"Load.652"                       1        0.0        0.0        0.0        0.0     0.0     0.0
"PVSystem.PV675"                 1        0.0      845.8        0.0        0.0    -0.0     0.4
"Storage.BESS675"                1        0.0       60.4        0.0        0.0    -0.0     0.0

Total Circuit Losses =  164.5 +j  281.0
