Mini_BESS_added/IEEE13Nodeckt_VLN.Txt

SYMMETRICAL COMPONENT VOLTAGES BY BUS (for 3-phase buses)

Bus        Mag:   V1 (kV)    p.u.     V2 (kV)   %V2/V1    V0 (kV)    %V0/V1

sourcebus     66.29     0.9984    0.01196    0.01804 4.319E-009 6.516E-009
650           2.372     0.9876   0.003608     0.1521   0.00322    0.1358
rg60          2.558      1.065    0.02569      1.004   0.02659     1.039
633           2.455      1.022   0.009301     0.3789  0.004906    0.1999
634           0.279      1.007   0.000936     0.3355 0.0007134    0.2557
632           2.459      1.024   0.009315     0.3788  0.004819     0.196
671            2.38     0.9911    0.01063     0.4466   0.04618      1.94
680            2.38     0.9911    0.01063     0.4466   0.04618      1.94
645           2.451       1.02          0          0         0         0
646           2.447      1.019          0          0         0         0
684           2.372     0.9875          0          0         0         0
611           2.326     0.9686          0          0         0         0
652           2.361     0.9832          0          0         0         0
692            2.38     0.9911    0.01063     0.4466   0.04623     1.942
675           2.369     0.9865     0.0133     0.5613   0.05007     2.113
